# DIS package for MODFLOW-2005 generated by Flopy 3.6.0
         3         1       100        11         4         0
  0  0  0
CONSTANT    2.500000E+02                           #delr                          
CONSTANT    2.000000E+01                           #delc                          
CONSTANT    0.000000E+00                           #model_top                     
INTERNAL               1 (100E15.6) -1 #botm layer 1                  
  -1.320000E+03  -1.325000E+03  -1.330000E+03  -1.334000E+03  -1.339000E+03  -1.344000E+03  -1.349000E+03  -1.354000E+03  -1.358000E+03  -1.363000E+03  -1.368000E+03  -1.373000E+03  -1.378000E+03  -1.382000E+03  -1.387000E+03  -1.392000E+03  -1.397000E+03  -1.402000E+03  -1.406000E+03  -1.411000E+03  -1.416000E+03  -1.421000E+03  -1.426000E+03  -1.430000E+03  -1.435000E+03  -1.440000E+03  -1.445000E+03  -1.450000E+03  -1.454000E+03  -1.459000E+03  -1.464000E+03  -1.469000E+03  -1.474000E+03  -1.478000E+03  -1.483000E+03  -1.488000E+03  -1.493000E+03  -1.498000E+03  -1.502000E+03  -1.507000E+03  -1.512000E+03  -1.517000E+03  -1.522000E+03  -1.526000E+03  -1.531000E+03  -1.536000E+03  -1.541000E+03  -1.546000E+03  -1.550000E+03  -1.555000E+03  -1.560000E+03  -1.565000E+03  -1.570000E+03  -1.574000E+03  -1.579000E+03  -1.584000E+03  -1.589000E+03  -1.594000E+03  -1.598000E+03  -1.603000E+03  -1.608000E+03  -1.613000E+03  -1.618000E+03  -1.622000E+03  -1.627000E+03  -1.632000E+03  -1.637000E+03  -1.642000E+03  -1.646000E+03  -1.651000E+03  -1.656000E+03  -1.661000E+03  -1.666000E+03  -1.670000E+03  -1.675000E+03  -1.680000E+03  -1.685000E+03  -1.690000E+03  -1.694000E+03  -1.699000E+03  -1.704000E+03  -1.709000E+03  -1.714000E+03  -1.718000E+03  -1.723000E+03  -1.728000E+03  -1.733000E+03  -1.738000E+03  -1.742000E+03  -1.747000E+03  -1.752000E+03  -1.757000E+03  -1.762000E+03  -1.766000E+03  -1.771000E+03  -1.776000E+03  -1.781000E+03  -1.786000E+03  -1.790000E+03  -1.795000E+03
INTERNAL               1 (100E15.6) -1 #botm layer 2                  
  -1.688000E+03  -1.693000E+03  -1.697000E+03  -1.702000E+03  -1.706000E+03  -1.711000E+03  -1.716000E+03  -1.720000E+03  -1.725000E+03  -1.730000E+03  -1.734000E+03  -1.739000E+03  -1.743000E+03  -1.748000E+03  -1.753000E+03  -1.757000E+03  -1.762000E+03  -1.767000E+03  -1.771000E+03  -1.776000E+03  -1.780000E+03  -1.785000E+03  -1.790000E+03  -1.794000E+03  -1.799000E+03  -1.804000E+03  -1.808000E+03  -1.813000E+03  -1.817000E+03  -1.822000E+03  -1.827000E+03  -1.831000E+03  -1.836000E+03  -1.840000E+03  -1.845000E+03  -1.850000E+03  -1.854000E+03  -1.859000E+03  -1.864000E+03  -1.868000E+03  -1.873000E+03  -1.877000E+03  -1.882000E+03  -1.887000E+03  -1.891000E+03  -1.896000E+03  -1.901000E+03  -1.905000E+03  -1.910000E+03  -1.914000E+03  -1.919000E+03  -1.924000E+03  -1.928000E+03  -1.933000E+03  -1.937000E+03  -1.942000E+03  -1.947000E+03  -1.951000E+03  -1.956000E+03  -1.961000E+03  -1.965000E+03  -1.970000E+03  -1.974000E+03  -1.979000E+03  -1.984000E+03  -1.988000E+03  -1.993000E+03  -1.998000E+03  -2.002000E+03  -2.007000E+03  -2.011000E+03  -2.016000E+03  -2.021000E+03  -2.025000E+03  -2.030000E+03  -2.034000E+03  -2.039000E+03  -2.044000E+03  -2.048000E+03  -2.052000E+03  -2.058000E+03  -2.062000E+03  -2.066000E+03  -2.072000E+03  -2.076000E+03  -2.080000E+03  -2.086000E+03  -2.090000E+03  -2.094000E+03  -2.100000E+03  -2.104000E+03  -2.108000E+03  -2.114000E+03  -2.118000E+03  -2.122000E+03  -2.126000E+03  -2.132000E+03  -2.136000E+03  -2.140000E+03  -2.146000E+03
INTERNAL               1 (100E15.6) -1 #botm layer 3                  
  -2.500000E+03  -2.500000E+03  -2.500000E+03  -2.500000E+03  -2.500000E+03  -2.500000E+03  -2.500000E+03  -2.500000E+03  -2.500000E+03  -2.500000E+03  -2.500000E+03  -2.500000E+03  -2.500000E+03  -2.500000E+03  -2.500000E+03  -2.500000E+03  -2.500000E+03  -2.500000E+03  -2.500000E+03  -2.500000E+03  -2.500000E+03  -2.500000E+03  -2.500000E+03  -2.500000E+03  -2.500000E+03  -2.500000E+03  -2.500000E+03  -2.500000E+03  -2.500000E+03  -2.500000E+03  -2.500000E+03  -2.500000E+03  -2.500000E+03  -2.500000E+03  -2.500000E+03  -2.500000E+03  -2.500000E+03  -2.500000E+03  -2.500000E+03  -2.500000E+03  -2.500000E+03  -2.500000E+03  -2.500000E+03  -2.500000E+03  -2.500000E+03  -2.500000E+03  -2.500000E+03  -2.500000E+03  -2.500000E+03  -2.500000E+03  -2.500000E+03  -2.500000E+03  -2.500000E+03  -2.500000E+03  -2.500000E+03  -2.500000E+03  -2.500000E+03  -2.500000E+03  -2.500000E+03  -2.500000E+03  -2.500000E+03  -2.500000E+03  -2.500000E+03  -2.500000E+03  -2.500000E+03  -2.500000E+03  -2.500000E+03  -2.500000E+03  -2.500000E+03  -2.500000E+03  -2.500000E+03  -2.500000E+03  -2.500000E+03  -2.500000E+03  -2.500000E+03  -2.500000E+03  -2.500000E+03  -2.500000E+03  -2.500000E+03  -2.500000E+03  -2.500000E+03  -2.500000E+03  -2.500000E+03  -2.500000E+03  -2.500000E+03  -2.500000E+03  -2.500000E+03  -2.500000E+03  -2.500000E+03  -2.500000E+03  -2.500000E+03  -2.500000E+03  -2.500000E+03  -2.500000E+03  -2.500000E+03  -2.500000E+03  -2.500000E+03  -2.500000E+03  -2.500000E+03  -2.500000E+03
      1.000000             1  1.000000  SS
    365.299988             6  1.300000  TR
    365.299988             6  1.300000  TR
    365.299988             6  1.300000  TR
    365.299988             6  1.300000  TR
    365.299988             6  1.300000  TR
    365.299988             6  1.300000  TR
    365.299988             6  1.300000  TR
    365.299988             6  1.300000  TR
    365.299988             6  1.300000  TR
    365.299988             6  1.300000  TR
