# SUB package for MODFLOW-2005 generated by Flopy 3.6.0
0 1 3 2 1 20 0 0.2 5 -1 -1
1 2 3 
1 3 
CONSTANT    7.635000E+00                           #rnb layer 1                   
CONSTANT    1.771800E+01                           #rnb layer 2                   
CONSTANT   -7.000000E+00                           #hc layer 1                    
CONSTANT    2.100000E-04                           #sfe layer 1                   
INTERNAL               1 (100E15.6) -1 #sfv layer 1                   
   9.117126E-03   9.117126E-03   9.117126E-03   9.117126E-03   9.117126E-03   9.117126E-03   9.117126E-03   9.117126E-03   9.117126E-03   9.117126E-03   9.117126E-03   9.117126E-03   9.117126E-03   9.117126E-03   9.117126E-03   9.117126E-03   9.117126E-03   9.117126E-03   9.117126E-03   9.117126E-03   9.117126E-03   9.117126E-03   9.117126E-03   9.117126E-03   9.117126E-03   9.117126E-03   9.117126E-03   9.117126E-03   9.117126E-03   9.117126E-03   9.117126E-03   9.117126E-03   9.117126E-03   9.117126E-03   9.117126E-03   9.117126E-03   9.117126E-03   9.117126E-03   9.117126E-03   9.117126E-03   9.117126E-03   9.117126E-03   9.117126E-03   9.117126E-03   9.117126E-03   9.117126E-03   9.117126E-03   9.117126E-03   9.117126E-03   9.117126E-03   9.117126E-03   9.117126E-03   9.117126E-03   9.117126E-03   9.117126E-03   9.117126E-03   9.117126E-03   9.117126E-03   9.117126E-03   9.117126E-03   9.117126E-03   9.117126E-03   9.117126E-03   9.117126E-03   9.117126E-03   9.117126E-03   9.117126E-03   9.117126E-03   9.117126E-03   9.117126E-03   9.117126E-03   9.117126E-03   9.117126E-03   9.117126E-03   9.117126E-03   9.117126E-03   9.117126E-03   9.117126E-03   9.117126E-03   9.117126E-03   9.117126E-03   9.117126E-03   9.117126E-03   9.117126E-03   9.117126E-03   9.117126E-03   9.117126E-03   9.117126E-03   9.117126E-03   9.117126E-03   9.117126E-03   9.117126E-03   9.117126E-03   9.117126E-03   9.117126E-03   9.117126E-03   9.117126E-03   9.117126E-03   9.117126E-03   9.117126E-03
CONSTANT    0.000000E+00                           #com layer 1                   
CONSTANT   -7.000000E+00                           #hc layer 2                    
CONSTANT    1.500000E-04                           #sfe layer 2                   
INTERNAL               1 (100E15.6) -1 #sfv layer 2                   
   7.579803E-03   7.579803E-03   7.579803E-03   7.579803E-03   7.579803E-03   7.579803E-03   7.579803E-03   7.579803E-03   7.579803E-03   7.579803E-03   7.579803E-03   7.579803E-03   7.579803E-03   7.579803E-03   7.579803E-03   7.579803E-03   7.579803E-03   7.579803E-03   7.579803E-03   7.579803E-03   7.579803E-03   7.579803E-03   7.579803E-03   7.579803E-03   7.579803E-03   7.579803E-03   7.579803E-03   7.579803E-03   7.579803E-03   7.579803E-03   7.579803E-03   7.579803E-03   7.579803E-03   7.579803E-03   7.579803E-03   7.579803E-03   7.579803E-03   7.579803E-03   7.579803E-03   7.579803E-03   7.579803E-03   7.579803E-03   7.579803E-03   7.579803E-03   7.579803E-03   7.579803E-03   7.579803E-03   7.579803E-03   7.579803E-03   7.579803E-03   7.579803E-03   7.579803E-03   7.579803E-03   7.579803E-03   7.579803E-03   7.579803E-03   7.579803E-03   7.579803E-03   7.579803E-03   7.579803E-03   7.579803E-03   7.579803E-03   7.579803E-03   7.579803E-03   7.579803E-03   7.579803E-03   7.579803E-03   7.579803E-03   7.579803E-03   7.579803E-03   7.579803E-03   7.579803E-03   7.579803E-03   7.579803E-03   7.579803E-03   7.579803E-03   7.579803E-03   7.579803E-03   7.579803E-03   7.579803E-03   7.579803E-03   7.579803E-03   7.579803E-03   7.579803E-03   7.579803E-03   7.579803E-03   7.579803E-03   7.579803E-03   7.579803E-03   7.579803E-03   7.579803E-03   7.579803E-03   7.579803E-03   7.579803E-03   7.579803E-03   7.579803E-03   7.579803E-03   7.579803E-03   7.579803E-03   7.579803E-03
CONSTANT    0.000000E+00                           #com layer 2                   
CONSTANT   -7.000000E+00                           #hc layer 3                    
CONSTANT    4.200000E-04                           #sfe layer 3                   
INTERNAL               1 (100E15.6) -1 #sfv layer 3                   
   1.823425E-02   1.823425E-02   1.823425E-02   1.823425E-02   1.823425E-02   1.823425E-02   1.823425E-02   1.823425E-02   1.823425E-02   1.823425E-02   1.823425E-02   1.823425E-02   1.823425E-02   1.823425E-02   1.823425E-02   1.823425E-02   1.823425E-02   1.823425E-02   1.823425E-02   1.823425E-02   1.823425E-02   1.823425E-02   1.823425E-02   1.823425E-02   1.823425E-02   1.823425E-02   1.823425E-02   1.823425E-02   1.823425E-02   1.823425E-02   1.823425E-02   1.823425E-02   1.823425E-02   1.823425E-02   1.823425E-02   1.823425E-02   1.823425E-02   1.823425E-02   1.823425E-02   1.823425E-02   1.823425E-02   1.823425E-02   1.823425E-02   1.823425E-02   1.823425E-02   1.823425E-02   1.823425E-02   1.823425E-02   1.823425E-02   1.823425E-02   1.823425E-02   1.823425E-02   1.823425E-02   1.823425E-02   1.823425E-02   1.823425E-02   1.823425E-02   1.823425E-02   1.823425E-02   1.823425E-02   1.823425E-02   1.823425E-02   1.823425E-02   1.823425E-02   1.823425E-02   1.823425E-02   1.823425E-02   1.823425E-02   1.823425E-02   1.823425E-02   1.823425E-02   1.823425E-02   1.823425E-02   1.823425E-02   1.823425E-02   1.823425E-02   1.823425E-02   1.823425E-02   1.823425E-02   1.823425E-02   1.823425E-02   1.823425E-02   1.823425E-02   1.823425E-02   1.823425E-02   1.823425E-02   1.823425E-02   1.823425E-02   1.823425E-02   1.823425E-02   1.823425E-02   1.823425E-02   1.823425E-02   1.823425E-02   1.823425E-02   1.823425E-02   1.823425E-02   1.823425E-02   1.823425E-02   1.823425E-02
CONSTANT    0.000000E+00                           #com layer 3                   
          1e-06           6e-06          0.0006    #material zone 1 data
CONSTANT   -7.000000E+00                           #dstart layer 1                
CONSTANT   -7.000000E+00                           #dhc layer 1                   
CONSTANT    0.000000E+00                           #dcom layer 1                  
CONSTANT    5.894000E+00                           #dz layer 1                    
CONSTANT          1                                #nz layer 1                    
CONSTANT   -7.000000E+00                           #dstart layer 2                
CONSTANT   -7.000000E+00                           #dhc layer 2                   
CONSTANT    0.000000E+00                           #dcom layer 2                  
CONSTANT    5.080000E+00                           #dz layer 2                    
CONSTANT          1                                #nz layer 2                    
0 41 0 42 0 42 0 41 0 43 0 43   #dataset 15
1 11 6 6 -1 2 -1 2 -1 2 -1 -1 -1 -1 -1 -1 2   #dataset 16 isuboc 1
