# SIP package for MODFLOW-2005 generated by Flopy 3.6.0
120 5
1 0.0001 1 0 5
